
OS:Version,
  {6444e3fe-a589-4e5a-b7e9-1fb7d02c50a2}, !- Handle
  2.8.1;                                  !- Version Identifier

OS:SpaceType,
  {7976b06b-0067-40c4-8570-5f9ea9b70a2c}, !- Handle
  Automotive facility WholeBuilding,      !- Name
  ,                                       !- Default Construction Set Name
  {14bc7ecd-65f3-4b93-92ee-a1aa3a340055}, !- Default Schedule Set Name
  ,                                       !- Group Rendering Name
  {495b97c6-e06d-417e-b073-eb3bac3941bd}, !- Design Specification Outdoor Air Object Name
  ,                                       !- Standards Template
  Automotive facility,                    !- Standards Building Type
  WholeBuilding;                          !- Standards Space Type

OS:People:Definition,
  {3b2040fe-3e54-4477-880a-f7902e83597d}, !- Handle
  Automotive facility WholeBuilding People Definition, !- Name
  People/Area,                            !- Number of People Calculation Method
  ,                                       !- Number of People {people}
  0.0500181710813649,                     !- People per Space Floor Area {person/m2}
  ,                                       !- Space Floor Area per Person {m2/person}
  0.3;                                    !- Fraction Radiant

OS:People,
  {8600757d-11b6-4c26-8d2d-256bbf20010f}, !- Handle
  Automotive facility WholeBuilding People, !- Name
  {3b2040fe-3e54-4477-880a-f7902e83597d}, !- People Definition Name
  {7976b06b-0067-40c4-8570-5f9ea9b70a2c}, !- Space or SpaceType Name
  ,                                       !- Number of People Schedule Name
  ,                                       !- Activity Level Schedule Name
  ,                                       !- Surface Name/Angle Factor List Name
  {5592df99-cbc4-45d7-9c13-e0b0b98fc8b6}, !- Work Efficiency Schedule Name
  {04321a4d-0196-4ce7-853e-089ad0656151}, !- Clothing Insulation Schedule Name
  {3fa52c13-94ec-4eef-b597-2fcc11f39e72}, !- Air Velocity Schedule Name
  1;                                      !- Multiplier

OS:Schedule:Ruleset,
  {04321a4d-0196-4ce7-853e-089ad0656151}, !- Handle
  Clothing Schedule,                      !- Name
  {79acf94b-ed2b-481c-ad05-da3c1db1fa25}, !- Schedule Type Limits Name
  {41011a46-dc20-4d32-b6d6-51ccd6d69dbb}; !- Default Day Schedule Name

OS:Schedule:Day,
  {41011a46-dc20-4d32-b6d6-51ccd6d69dbb}, !- Handle
  Clothing Schedule Default Winter Clothes, !- Name
  {79acf94b-ed2b-481c-ad05-da3c1db1fa25}, !- Schedule Type Limits Name
  ,                                       !- Interpolate to Timestep
  24,                                     !- Hour 1
  0,                                      !- Minute 1
  1;                                      !- Value Until Time 1

OS:Schedule:Rule,
  {8fb5b05f-52ca-46e9-9675-f2dde30a9572}, !- Handle
  Schedule Rule 1,                        !- Name
  {04321a4d-0196-4ce7-853e-089ad0656151}, !- Schedule Ruleset Name
  0,                                      !- Rule Order
  {954a9c31-2c49-4484-addc-a1235abbfe53}, !- Day Schedule Name
  ,                                       !- Apply Sunday
  ,                                       !- Apply Monday
  ,                                       !- Apply Tuesday
  ,                                       !- Apply Wednesday
  ,                                       !- Apply Thursday
  ,                                       !- Apply Friday
  ,                                       !- Apply Saturday
  ,                                       !- Apply Holiday
  DateRange,                              !- Date Specification Type
  5,                                      !- Start Month
  1,                                      !- Start Day
  9,                                      !- End Month
  30;                                     !- End Day

OS:Schedule:Day,
  {954a9c31-2c49-4484-addc-a1235abbfe53}, !- Handle
  Clothing Schedule Summer Clothes,       !- Name
  {79acf94b-ed2b-481c-ad05-da3c1db1fa25}, !- Schedule Type Limits Name
  ,                                       !- Interpolate to Timestep
  24,                                     !- Hour 1
  0,                                      !- Minute 1
  0.5;                                    !- Value Until Time 1

OS:ScheduleTypeLimits,
  {79acf94b-ed2b-481c-ad05-da3c1db1fa25}, !- Handle
  ClothingInsulation,                     !- Name
  0,                                      !- Lower Limit Value
  ,                                       !- Upper Limit Value
  Continuous,                             !- Numeric Type
  ClothingInsulation;                     !- Unit Type

OS:Schedule:Ruleset,
  {3fa52c13-94ec-4eef-b597-2fcc11f39e72}, !- Handle
  Air Velocity Schedule,                  !- Name
  {b57beee3-e64d-4d30-b63a-7b4a5d2fb196}, !- Schedule Type Limits Name
  {4f7ddd9d-7252-4538-a23f-3a5a9c61faa0}; !- Default Day Schedule Name

OS:Schedule:Day,
  {4f7ddd9d-7252-4538-a23f-3a5a9c61faa0}, !- Handle
  Air Velocity Schedule Default,          !- Name
  {b57beee3-e64d-4d30-b63a-7b4a5d2fb196}, !- Schedule Type Limits Name
  ,                                       !- Interpolate to Timestep
  24,                                     !- Hour 1
  0,                                      !- Minute 1
  0.2;                                    !- Value Until Time 1

OS:ScheduleTypeLimits,
  {b57beee3-e64d-4d30-b63a-7b4a5d2fb196}, !- Handle
  Velocity,                               !- Name
  0,                                      !- Lower Limit Value
  ,                                       !- Upper Limit Value
  Continuous,                             !- Numeric Type
  Velocity;                               !- Unit Type

OS:Schedule:Ruleset,
  {5592df99-cbc4-45d7-9c13-e0b0b98fc8b6}, !- Handle
  Work Efficiency Schedule,               !- Name
  {29f42be8-7411-4f52-b821-d5819ae5890c}, !- Schedule Type Limits Name
  {f7997cfa-b49b-4387-80d4-20ba46013949}; !- Default Day Schedule Name

OS:Schedule:Day,
  {f7997cfa-b49b-4387-80d4-20ba46013949}, !- Handle
  Work Efficiency Schedule Default,       !- Name
  {29f42be8-7411-4f52-b821-d5819ae5890c}, !- Schedule Type Limits Name
  ,                                       !- Interpolate to Timestep
  24,                                     !- Hour 1
  0,                                      !- Minute 1
  0;                                      !- Value Until Time 1

OS:ScheduleTypeLimits,
  {29f42be8-7411-4f52-b821-d5819ae5890c}, !- Handle
  Fractional,                             !- Name
  0,                                      !- Lower Limit Value
  1,                                      !- Upper Limit Value
  Continuous;                             !- Numeric Type

OS:Lights:Definition,
  {1cbe3dbc-f022-46cb-a87d-a1cc835b85f6}, !- Handle
  Automotive facility WholeBuilding Lights Definition, !- Name
  Watts/Area,                             !- Design Level Calculation Method
  ,                                       !- Lighting Level {W}
  7.59993429709082,                       !- Watts per Space Floor Area {W/m2}
  ,                                       !- Watts per Person {W/person}
  0.5,                                    !- Fraction Radiant
  0.2;                                    !- Fraction Visible

OS:Lights,
  {31519f3f-8f1c-47f1-87b3-9d540a1c2702}, !- Handle
  Automotive facility WholeBuilding Lights, !- Name
  {1cbe3dbc-f022-46cb-a87d-a1cc835b85f6}, !- Lights Definition Name
  {7976b06b-0067-40c4-8570-5f9ea9b70a2c}, !- Space or SpaceType Name
  ,                                       !- Schedule Name
  1,                                      !- Fraction Replaceable
  ,                                       !- Multiplier
  General;                                !- End-Use Subcategory

OS:ElectricEquipment:Definition,
  {a0856164-6268-4df9-b24f-043d565b69f8}, !- Handle
  Automotive facility WholeBuilding Elec Equip Definition, !- Name
  Watts/Area,                             !- Design Level Calculation Method
  ,                                       !- Design Level {W}
  5.00181710813649,                       !- Watts per Space Floor Area {W/m2}
  ,                                       !- Watts per Person {W/person}
  ,                                       !- Fraction Latent
  0.5;                                    !- Fraction Radiant

OS:ElectricEquipment,
  {c9338cf2-0d19-4443-9e68-976658e70355}, !- Handle
  Automotive facility WholeBuilding Elec Equip, !- Name
  {a0856164-6268-4df9-b24f-043d565b69f8}, !- Electric Equipment Definition Name
  {7976b06b-0067-40c4-8570-5f9ea9b70a2c}, !- Space or SpaceType Name
  ,                                       !- Schedule Name
  ,                                       !- Multiplier
  General;                                !- End-Use Subcategory

OS:DesignSpecification:OutdoorAir,
  {495b97c6-e06d-417e-b073-eb3bac3941bd}, !- Handle
  Automotive facility WholeBuilding Ventilation, !- Name
  Sum,                                    !- Outdoor Air Method
  ,                                       !- Outdoor Air Flow per Person {m3/s-person}
  0.00114808,                             !- Outdoor Air Flow per Floor Area {m3/s-m2}
  ,                                       !- Outdoor Air Flow Rate {m3/s}
  ,                                       !- Outdoor Air Flow Air Changes per Hour {1/hr}
  ;                                       !- Outdoor Air Flow Rate Fraction Schedule Name

OS:SpaceInfiltration:DesignFlowRate,
  {430006b4-7807-491a-81b7-30a8d740d7f2}, !- Handle
  Automotive facility WholeBuilding Infiltration, !- Name
  {7976b06b-0067-40c4-8570-5f9ea9b70a2c}, !- Space or SpaceType Name
  ,                                       !- Schedule Name
  Flow/ExteriorArea,                      !- Design Flow Rate Calculation Method
  ,                                       !- Design Flow Rate {m3/s}
  ,                                       !- Flow per Space Floor Area {m3/s-m2}
  0.000250063,                            !- Flow per Exterior Surface Area {m3/s-m2}
  ,                                       !- Air Changes per Hour {1/hr}
  ,                                       !- Constant Term Coefficient
  ,                                       !- Temperature Term Coefficient
  ,                                       !- Velocity Term Coefficient
  ;                                       !- Velocity Squared Term Coefficient

OS:DefaultScheduleSet,
  {14bc7ecd-65f3-4b93-92ee-a1aa3a340055}, !- Handle
  Automotive facility WholeBuilding Schedule Set, !- Name
  ,                                       !- Hours of Operation Schedule Name
  {98629601-27c0-4ef6-9229-0863b687f18f}, !- Number of People Schedule Name
  {1da01326-e008-4ed4-bd3a-c30a4bc263d8}, !- People Activity Level Schedule Name
  {5706564a-f9d0-4f46-acbb-da6a9e31b355}, !- Lighting Schedule Name
  {bedea7fd-bc45-451e-81dd-277c0cb7382c}, !- Electric Equipment Schedule Name
  ,                                       !- Gas Equipment Schedule Name
  ,                                       !- Hot Water Equipment Schedule Name
  {9d7095b3-f3cc-4bee-bdfe-0512e30ed2e4}, !- Infiltration Schedule Name
  ,                                       !- Steam Equipment Schedule Name
  ;                                       !- Other Equipment Schedule Name

OS:Schedule:Ruleset,
  {98629601-27c0-4ef6-9229-0863b687f18f}, !- Handle
  NECB-E-Occupancy,                       !- Name
  {29f42be8-7411-4f52-b821-d5819ae5890c}, !- Schedule Type Limits Name
  {f60eaaf6-1a7f-4a75-988d-5ea3b3ad848f}; !- Default Day Schedule Name

OS:Schedule:Day,
  {f60eaaf6-1a7f-4a75-988d-5ea3b3ad848f}, !- Handle
  NECB-E-Occupancy Default,               !- Name
  {29f42be8-7411-4f52-b821-d5819ae5890c}, !- Schedule Type Limits Name
  ,                                       !- Interpolate to Timestep
  8,                                      !- Hour 1
  0,                                      !- Minute 1
  0,                                      !- Value Until Time 1
  9,                                      !- Hour 2
  0,                                      !- Minute 2
  0.2,                                    !- Value Until Time 2
  10,                                     !- Hour 3
  0,                                      !- Minute 3
  0.7,                                    !- Value Until Time 3
  14,                                     !- Hour 4
  0,                                      !- Minute 4
  0.9,                                    !- Value Until Time 4
  15,                                     !- Hour 5
  0,                                      !- Minute 5
  0.5,                                    !- Value Until Time 5
  16,                                     !- Hour 6
  0,                                      !- Minute 6
  0.9,                                    !- Value Until Time 6
  18,                                     !- Hour 7
  0,                                      !- Minute 7
  0.8,                                    !- Value Until Time 7
  19,                                     !- Hour 8
  0,                                      !- Minute 8
  0.2,                                    !- Value Until Time 8
  24,                                     !- Hour 9
  0,                                      !- Minute 9
  0;                                      !- Value Until Time 9

OS:Schedule:Rule,
  {29de4bfb-7312-41ed-bb1a-ce2a1750f1ee}, !- Handle
  Schedule Rule 2,                        !- Name
  {98629601-27c0-4ef6-9229-0863b687f18f}, !- Schedule Ruleset Name
  2,                                      !- Rule Order
  {19adb2cd-b9f0-4690-8749-ff54a02caf63}, !- Day Schedule Name
  ,                                       !- Apply Sunday
  Yes,                                    !- Apply Monday
  Yes,                                    !- Apply Tuesday
  Yes,                                    !- Apply Wednesday
  Yes,                                    !- Apply Thursday
  Yes,                                    !- Apply Friday
  ,                                       !- Apply Saturday
  ,                                       !- Apply Holiday
  DateRange,                              !- Date Specification Type
  1,                                      !- Start Month
  1,                                      !- Start Day
  12,                                     !- End Month
  31;                                     !- End Day

OS:Schedule:Day,
  {19adb2cd-b9f0-4690-8749-ff54a02caf63}, !- Handle
  NECB-E-Occupancy Default|Wkdy Day,      !- Name
  {29f42be8-7411-4f52-b821-d5819ae5890c}, !- Schedule Type Limits Name
  ,                                       !- Interpolate to Timestep
  8,                                      !- Hour 1
  0,                                      !- Minute 1
  0,                                      !- Value Until Time 1
  9,                                      !- Hour 2
  0,                                      !- Minute 2
  0.2,                                    !- Value Until Time 2
  10,                                     !- Hour 3
  0,                                      !- Minute 3
  0.7,                                    !- Value Until Time 3
  14,                                     !- Hour 4
  0,                                      !- Minute 4
  0.9,                                    !- Value Until Time 4
  15,                                     !- Hour 5
  0,                                      !- Minute 5
  0.5,                                    !- Value Until Time 5
  16,                                     !- Hour 6
  0,                                      !- Minute 6
  0.9,                                    !- Value Until Time 6
  18,                                     !- Hour 7
  0,                                      !- Minute 7
  0.8,                                    !- Value Until Time 7
  19,                                     !- Hour 8
  0,                                      !- Minute 8
  0.2,                                    !- Value Until Time 8
  24,                                     !- Hour 9
  0,                                      !- Minute 9
  0;                                      !- Value Until Time 9

OS:Schedule:Rule,
  {504619c7-b9be-44a0-a594-43d44bf24f76}, !- Handle
  Schedule Rule 3,                        !- Name
  {98629601-27c0-4ef6-9229-0863b687f18f}, !- Schedule Ruleset Name
  1,                                      !- Rule Order
  {ae991acc-c921-414f-8f6f-581e01801d11}, !- Day Schedule Name
  ,                                       !- Apply Sunday
  ,                                       !- Apply Monday
  ,                                       !- Apply Tuesday
  ,                                       !- Apply Wednesday
  ,                                       !- Apply Thursday
  ,                                       !- Apply Friday
  Yes,                                    !- Apply Saturday
  ,                                       !- Apply Holiday
  DateRange,                              !- Date Specification Type
  1,                                      !- Start Month
  1,                                      !- Start Day
  12,                                     !- End Month
  31;                                     !- End Day

OS:Schedule:Day,
  {ae991acc-c921-414f-8f6f-581e01801d11}, !- Handle
  NECB-E-Occupancy Sat Day,               !- Name
  {29f42be8-7411-4f52-b821-d5819ae5890c}, !- Schedule Type Limits Name
  ,                                       !- Interpolate to Timestep
  9,                                      !- Hour 1
  0,                                      !- Minute 1
  0,                                      !- Value Until Time 1
  13,                                     !- Hour 2
  0,                                      !- Minute 2
  0.2,                                    !- Value Until Time 2
  17,                                     !- Hour 3
  0,                                      !- Minute 3
  0.1,                                    !- Value Until Time 3
  24,                                     !- Hour 4
  0,                                      !- Minute 4
  0;                                      !- Value Until Time 4

OS:Schedule:Rule,
  {e4466fd4-169f-4ec4-816a-73f84195aa6e}, !- Handle
  Schedule Rule 4,                        !- Name
  {98629601-27c0-4ef6-9229-0863b687f18f}, !- Schedule Ruleset Name
  0,                                      !- Rule Order
  {805e404c-d1b4-4266-8046-c9269b78c344}, !- Day Schedule Name
  Yes,                                    !- Apply Sunday
  ,                                       !- Apply Monday
  ,                                       !- Apply Tuesday
  ,                                       !- Apply Wednesday
  ,                                       !- Apply Thursday
  ,                                       !- Apply Friday
  ,                                       !- Apply Saturday
  ,                                       !- Apply Holiday
  DateRange,                              !- Date Specification Type
  1,                                      !- Start Month
  1,                                      !- Start Day
  12,                                     !- End Month
  31;                                     !- End Day

OS:Schedule:Day,
  {805e404c-d1b4-4266-8046-c9269b78c344}, !- Handle
  NECB-E-Occupancy Sun|Hol Day,           !- Name
  {29f42be8-7411-4f52-b821-d5819ae5890c}, !- Schedule Type Limits Name
  ,                                       !- Interpolate to Timestep
  24,                                     !- Hour 1
  0,                                      !- Minute 1
  0;                                      !- Value Until Time 1

OS:Schedule:Ruleset,
  {1da01326-e008-4ed4-bd3a-c30a4bc263d8}, !- Handle
  NECB-Activity,                          !- Name
  {ec4331ac-bc62-42a9-9274-14a26fc19d4d}, !- Schedule Type Limits Name
  {a75aa7b4-835b-46fa-a18d-3bbce03733cb}, !- Default Day Schedule Name
  {20f8696c-cbf2-45c3-beaa-6acbb55c7192}, !- Summer Design Day Schedule Name
  {a1e972f6-7ca3-43d2-9119-c918c3ebbadc}; !- Winter Design Day Schedule Name

OS:Schedule:Day,
  {a75aa7b4-835b-46fa-a18d-3bbce03733cb}, !- Handle
  NECB-Activity Default,                  !- Name
  {ec4331ac-bc62-42a9-9274-14a26fc19d4d}, !- Schedule Type Limits Name
  ,                                       !- Interpolate to Timestep
  24,                                     !- Hour 1
  0,                                      !- Minute 1
  130;                                    !- Value Until Time 1

OS:Schedule:Day,
  {68b67407-c7be-43d9-bf90-bb121d1c3706}, !- Handle
  Schedule Day 1,                         !- Name
  ,                                       !- Schedule Type Limits Name
  ,                                       !- Interpolate to Timestep
  24,                                     !- Hour 1
  0,                                      !- Minute 1
  0;                                      !- Value Until Time 1

OS:Schedule:Day,
  {a1e972f6-7ca3-43d2-9119-c918c3ebbadc}, !- Handle
  NECB-Activity Winter Design Day,        !- Name
  {ec4331ac-bc62-42a9-9274-14a26fc19d4d}, !- Schedule Type Limits Name
  ,                                       !- Interpolate to Timestep
  24,                                     !- Hour 1
  0,                                      !- Minute 1
  130;                                    !- Value Until Time 1

OS:Schedule:Day,
  {debb9578-c04d-4984-aa9f-53e7cc420394}, !- Handle
  Schedule Day 2,                         !- Name
  ,                                       !- Schedule Type Limits Name
  ,                                       !- Interpolate to Timestep
  24,                                     !- Hour 1
  0,                                      !- Minute 1
  0;                                      !- Value Until Time 1

OS:Schedule:Day,
  {20f8696c-cbf2-45c3-beaa-6acbb55c7192}, !- Handle
  NECB-Activity Summer Design Day,        !- Name
  {ec4331ac-bc62-42a9-9274-14a26fc19d4d}, !- Schedule Type Limits Name
  ,                                       !- Interpolate to Timestep
  24,                                     !- Hour 1
  0,                                      !- Minute 1
  130;                                    !- Value Until Time 1

OS:ScheduleTypeLimits,
  {ec4331ac-bc62-42a9-9274-14a26fc19d4d}, !- Handle
  ActivityLevel,                          !- Name
  0,                                      !- Lower Limit Value
  ,                                       !- Upper Limit Value
  Continuous,                             !- Numeric Type
  ActivityLevel;                          !- Unit Type

OS:Schedule:Ruleset,
  {5706564a-f9d0-4f46-acbb-da6a9e31b355}, !- Handle
  NECB-E-Lighting,                        !- Name
  {29f42be8-7411-4f52-b821-d5819ae5890c}, !- Schedule Type Limits Name
  {0253f1b6-14a8-46a4-804e-d3ac1f180854}; !- Default Day Schedule Name

OS:Schedule:Day,
  {0253f1b6-14a8-46a4-804e-d3ac1f180854}, !- Handle
  NECB-E-Lighting Default,                !- Name
  {29f42be8-7411-4f52-b821-d5819ae5890c}, !- Schedule Type Limits Name
  ,                                       !- Interpolate to Timestep
  8,                                      !- Hour 1
  0,                                      !- Minute 1
  0.05,                                   !- Value Until Time 1
  9,                                      !- Hour 2
  0,                                      !- Minute 2
  0.4,                                    !- Value Until Time 2
  10,                                     !- Hour 3
  0,                                      !- Minute 3
  0.7,                                    !- Value Until Time 3
  18,                                     !- Hour 4
  0,                                      !- Minute 4
  0.9,                                    !- Value Until Time 4
  19,                                     !- Hour 5
  0,                                      !- Minute 5
  0.4,                                    !- Value Until Time 5
  24,                                     !- Hour 6
  0,                                      !- Minute 6
  0.05;                                   !- Value Until Time 6

OS:Schedule:Rule,
  {fe61be22-95fc-4fae-b012-7994d407c077}, !- Handle
  Schedule Rule 5,                        !- Name
  {5706564a-f9d0-4f46-acbb-da6a9e31b355}, !- Schedule Ruleset Name
  2,                                      !- Rule Order
  {4e29279c-3efe-4fbc-bfa2-8eec975e520f}, !- Day Schedule Name
  ,                                       !- Apply Sunday
  Yes,                                    !- Apply Monday
  Yes,                                    !- Apply Tuesday
  Yes,                                    !- Apply Wednesday
  Yes,                                    !- Apply Thursday
  Yes,                                    !- Apply Friday
  ,                                       !- Apply Saturday
  ,                                       !- Apply Holiday
  DateRange,                              !- Date Specification Type
  1,                                      !- Start Month
  1,                                      !- Start Day
  12,                                     !- End Month
  31;                                     !- End Day

OS:Schedule:Day,
  {4e29279c-3efe-4fbc-bfa2-8eec975e520f}, !- Handle
  NECB-E-Lighting Default|Wkdy Day,       !- Name
  {29f42be8-7411-4f52-b821-d5819ae5890c}, !- Schedule Type Limits Name
  ,                                       !- Interpolate to Timestep
  8,                                      !- Hour 1
  0,                                      !- Minute 1
  0.05,                                   !- Value Until Time 1
  9,                                      !- Hour 2
  0,                                      !- Minute 2
  0.4,                                    !- Value Until Time 2
  10,                                     !- Hour 3
  0,                                      !- Minute 3
  0.7,                                    !- Value Until Time 3
  18,                                     !- Hour 4
  0,                                      !- Minute 4
  0.9,                                    !- Value Until Time 4
  19,                                     !- Hour 5
  0,                                      !- Minute 5
  0.4,                                    !- Value Until Time 5
  24,                                     !- Hour 6
  0,                                      !- Minute 6
  0.05;                                   !- Value Until Time 6

OS:Schedule:Rule,
  {59bde3c6-e6d4-4351-8e31-b410052a0ac1}, !- Handle
  Schedule Rule 6,                        !- Name
  {5706564a-f9d0-4f46-acbb-da6a9e31b355}, !- Schedule Ruleset Name
  1,                                      !- Rule Order
  {5c092122-e386-4df9-b791-c392a9273b8e}, !- Day Schedule Name
  ,                                       !- Apply Sunday
  ,                                       !- Apply Monday
  ,                                       !- Apply Tuesday
  ,                                       !- Apply Wednesday
  ,                                       !- Apply Thursday
  ,                                       !- Apply Friday
  Yes,                                    !- Apply Saturday
  ,                                       !- Apply Holiday
  DateRange,                              !- Date Specification Type
  1,                                      !- Start Month
  1,                                      !- Start Day
  12,                                     !- End Month
  31;                                     !- End Day

OS:Schedule:Day,
  {5c092122-e386-4df9-b791-c392a9273b8e}, !- Handle
  NECB-E-Lighting Sat Day,                !- Name
  {29f42be8-7411-4f52-b821-d5819ae5890c}, !- Schedule Type Limits Name
  ,                                       !- Interpolate to Timestep
  9,                                      !- Hour 1
  0,                                      !- Minute 1
  0.05,                                   !- Value Until Time 1
  10,                                     !- Hour 2
  0,                                      !- Minute 2
  0.5,                                    !- Value Until Time 2
  15,                                     !- Hour 3
  0,                                      !- Minute 3
  0.9,                                    !- Value Until Time 3
  16,                                     !- Hour 4
  0,                                      !- Minute 4
  0.7,                                    !- Value Until Time 4
  17,                                     !- Hour 5
  0,                                      !- Minute 5
  0.5,                                    !- Value Until Time 5
  24,                                     !- Hour 6
  0,                                      !- Minute 6
  0.05;                                   !- Value Until Time 6

OS:Schedule:Rule,
  {bb41a33d-b3dc-4078-8833-4211b1e25ff8}, !- Handle
  Schedule Rule 7,                        !- Name
  {5706564a-f9d0-4f46-acbb-da6a9e31b355}, !- Schedule Ruleset Name
  0,                                      !- Rule Order
  {6d63eeb0-30cf-48a1-95c1-51a585ba31e6}, !- Day Schedule Name
  Yes,                                    !- Apply Sunday
  ,                                       !- Apply Monday
  ,                                       !- Apply Tuesday
  ,                                       !- Apply Wednesday
  ,                                       !- Apply Thursday
  ,                                       !- Apply Friday
  ,                                       !- Apply Saturday
  ,                                       !- Apply Holiday
  DateRange,                              !- Date Specification Type
  1,                                      !- Start Month
  1,                                      !- Start Day
  12,                                     !- End Month
  31;                                     !- End Day

OS:Schedule:Day,
  {6d63eeb0-30cf-48a1-95c1-51a585ba31e6}, !- Handle