
OS:Version,
  {e17b8fec-ea0d-4a40-8463-5f5207cb552b}, !- Handle
  2.8.1;                                  !- Version Identifier

OS:SpaceType,
  {53639fb5-1bf3-4091-94d2-a51020a4bc42}, !- Handle
  Automotive facility WholeBuilding,      !- Name
  ,                                       !- Default Construction Set Name
  {9a855f13-7ee7-4c11-9f2e-58e59e6a32e3}, !- Default Schedule Set Name
  ,                                       !- Group Rendering Name
  {7650b5bc-eb26-46e2-8088-8b75f3b5fe03}, !- Design Specification Outdoor Air Object Name
  ,                                       !- Standards Template
  Automotive facility,                    !- Standards Building Type
  WholeBuilding;                          !- Standards Space Type

OS:People:Definition,
  {425f2332-722b-44a5-b8fa-19f719135ee5}, !- Handle
  Automotive facility WholeBuilding People Definition, !- Name
  People/Area,                            !- Number of People Calculation Method
  ,                                       !- Number of People {people}
  0.0500181710813649,                     !- People per Space Floor Area {person/m2}
  ,                                       !- Space Floor Area per Person {m2/person}
  0.3;                                    !- Fraction Radiant

OS:People,
  {91468b84-734f-475e-946b-1718e55e7b85}, !- Handle
  Automotive facility WholeBuilding People, !- Name
  {425f2332-722b-44a5-b8fa-19f719135ee5}, !- People Definition Name
  {53639fb5-1bf3-4091-94d2-a51020a4bc42}, !- Space or SpaceType Name
  ,                                       !- Number of People Schedule Name
  ,                                       !- Activity Level Schedule Name
  ,                                       !- Surface Name/Angle Factor List Name
  {9daa1426-ef18-4fc4-8f8c-99e8c57fbdb2}, !- Work Efficiency Schedule Name
  {174c0c4a-09b9-4d0b-9dc4-0182c228834c}, !- Clothing Insulation Schedule Name
  {8b990182-55d2-4386-b2fd-ba15f9d51b17}, !- Air Velocity Schedule Name
  1;                                      !- Multiplier

OS:Schedule:Ruleset,
  {174c0c4a-09b9-4d0b-9dc4-0182c228834c}, !- Handle
  Clothing Schedule,                      !- Name
  {ecf9b36d-5bea-45b8-b0ad-515e3287b6ef}, !- Schedule Type Limits Name
  {7f0869ec-cbfe-475a-8931-fa567f2b7f8c}; !- Default Day Schedule Name

OS:Schedule:Day,
  {7f0869ec-cbfe-475a-8931-fa567f2b7f8c}, !- Handle
  Clothing Schedule Default Winter Clothes, !- Name
  {ecf9b36d-5bea-45b8-b0ad-515e3287b6ef}, !- Schedule Type Limits Name
  ,                                       !- Interpolate to Timestep
  24,                                     !- Hour 1
  0,                                      !- Minute 1
  1;                                      !- Value Until Time 1

OS:Schedule:Rule,
  {e4fadd0c-7721-428f-8588-41bc265186e7}, !- Handle
  Schedule Rule 1,                        !- Name
  {174c0c4a-09b9-4d0b-9dc4-0182c228834c}, !- Schedule Ruleset Name
  0,                                      !- Rule Order
  {c8e6dfd9-9861-429c-abaa-10ca4ebf80d6}, !- Day Schedule Name
  ,                                       !- Apply Sunday
  ,                                       !- Apply Monday
  ,                                       !- Apply Tuesday
  ,                                       !- Apply Wednesday
  ,                                       !- Apply Thursday
  ,                                       !- Apply Friday
  ,                                       !- Apply Saturday
  ,                                       !- Apply Holiday
  DateRange,                              !- Date Specification Type
  5,                                      !- Start Month
  1,                                      !- Start Day
  9,                                      !- End Month
  30;                                     !- End Day

OS:Schedule:Day,
  {c8e6dfd9-9861-429c-abaa-10ca4ebf80d6}, !- Handle
  Clothing Schedule Summer Clothes,       !- Name
  {ecf9b36d-5bea-45b8-b0ad-515e3287b6ef}, !- Schedule Type Limits Name
  ,                                       !- Interpolate to Timestep
  24,                                     !- Hour 1
  0,                                      !- Minute 1
  0.5;                                    !- Value Until Time 1

OS:ScheduleTypeLimits,
  {ecf9b36d-5bea-45b8-b0ad-515e3287b6ef}, !- Handle
  ClothingInsulation,                     !- Name
  0,                                      !- Lower Limit Value
  ,                                       !- Upper Limit Value
  Continuous,                             !- Numeric Type
  ClothingInsulation;                     !- Unit Type

OS:Schedule:Ruleset,
  {8b990182-55d2-4386-b2fd-ba15f9d51b17}, !- Handle
  Air Velocity Schedule,                  !- Name
  {3ac80e56-fe0e-47c9-adfb-8db96da52b4b}, !- Schedule Type Limits Name
  {8d6b8db9-39a9-4a8c-9eb9-19b65050cead}; !- Default Day Schedule Name

OS:Schedule:Day,
  {8d6b8db9-39a9-4a8c-9eb9-19b65050cead}, !- Handle
  Air Velocity Schedule Default,          !- Name
  {3ac80e56-fe0e-47c9-adfb-8db96da52b4b}, !- Schedule Type Limits Name
  ,                                       !- Interpolate to Timestep
  24,                                     !- Hour 1
  0,                                      !- Minute 1
  0.2;                                    !- Value Until Time 1

OS:ScheduleTypeLimits,
  {3ac80e56-fe0e-47c9-adfb-8db96da52b4b}, !- Handle
  Velocity,                               !- Name
  0,                                      !- Lower Limit Value
  ,                                       !- Upper Limit Value
  Continuous,                             !- Numeric Type
  Velocity;                               !- Unit Type

OS:Schedule:Ruleset,
  {9daa1426-ef18-4fc4-8f8c-99e8c57fbdb2}, !- Handle
  Work Efficiency Schedule,               !- Name
  {22de8ea3-4267-4411-bf95-77fabc2c9b96}, !- Schedule Type Limits Name
  {aa01eee4-8c5e-4615-92a2-2defc8bfbd27}; !- Default Day Schedule Name

OS:Schedule:Day,
  {aa01eee4-8c5e-4615-92a2-2defc8bfbd27}, !- Handle
  Work Efficiency Schedule Default,       !- Name
  {22de8ea3-4267-4411-bf95-77fabc2c9b96}, !- Schedule Type Limits Name
  ,                                       !- Interpolate to Timestep
  24,                                     !- Hour 1
  0,                                      !- Minute 1
  0;                                      !- Value Until Time 1

OS:ScheduleTypeLimits,
  {22de8ea3-4267-4411-bf95-77fabc2c9b96}, !- Handle
  Fractional,                             !- Name
  0,                                      !- Lower Limit Value
  1,                                      !- Upper Limit Value
  Continuous;                             !- Numeric Type

OS:Lights:Definition,
  {caefe863-f7f5-4624-87c9-686c311f7e08}, !- Handle
  Automotive facility WholeBuilding Lights Definition, !- Name
  Watts/Area,                             !- Design Level Calculation Method
  ,                                       !- Lighting Level {W}
  8.60312542599476,                       !- Watts per Space Floor Area {W/m2}
  ,                                       !- Watts per Person {W/person}
  0.5,                                    !- Fraction Radiant
  0.2;                                    !- Fraction Visible

OS:Lights,
  {7f6f639a-ed5d-4e52-a95f-01b26ab2c44e}, !- Handle
  Automotive facility WholeBuilding Lights, !- Name
  {caefe863-f7f5-4624-87c9-686c311f7e08}, !- Lights Definition Name
  {53639fb5-1bf3-4091-94d2-a51020a4bc42}, !- Space or SpaceType Name
  ,                                       !- Schedule Name
  1,                                      !- Fraction Replaceable
  ,                                       !- Multiplier
  General;                                !- End-Use Subcategory

OS:ElectricEquipment:Definition,
  {1157deb9-3699-4958-9da5-7131b8c2f64f}, !- Handle
  Automotive facility WholeBuilding Elec Equip Definition, !- Name
  Watts/Area,                             !- Design Level Calculation Method
  ,                                       !- Design Level {W}
  5.00181710813649,                       !- Watts per Space Floor Area {W/m2}
  ,                                       !- Watts per Person {W/person}
  ,                                       !- Fraction Latent
  0.5;                                    !- Fraction Radiant

OS:ElectricEquipment,
  {4ffb20d6-25ab-42d4-8dbc-72bba8fc56da}, !- Handle
  Automotive facility WholeBuilding Elec Equip, !- Name
  {1157deb9-3699-4958-9da5-7131b8c2f64f}, !- Electric Equipment Definition Name
  {53639fb5-1bf3-4091-94d2-a51020a4bc42}, !- Space or SpaceType Name
  ,                                       !- Schedule Name
  ,                                       !- Multiplier
  General;                                !- End-Use Subcategory

OS:DesignSpecification:OutdoorAir,
  {7650b5bc-eb26-46e2-8088-8b75f3b5fe03}, !- Handle
  Automotive facility WholeBuilding Ventilation, !- Name
  Sum,                                    !- Outdoor Air Method
  ,                                       !- Outdoor Air Flow per Person {m3/s-person}
  0.00114808,                             !- Outdoor Air Flow per Floor Area {m3/s-m2}
  ,                                       !- Outdoor Air Flow Rate {m3/s}
  ,                                       !- Outdoor Air Flow Air Changes per Hour {1/hr}
  ;                                       !- Outdoor Air Flow Rate Fraction Schedule Name

OS:SpaceInfiltration:DesignFlowRate,
  {6b4c408c-41a9-4ce2-92ec-5969c1fdec5f}, !- Handle
  Automotive facility WholeBuilding Infiltration, !- Name
  {53639fb5-1bf3-4091-94d2-a51020a4bc42}, !- Space or SpaceType Name
  ,                                       !- Schedule Name
  Flow/ExteriorArea,                      !- Design Flow Rate Calculation Method
  ,                                       !- Design Flow Rate {m3/s}
  ,                                       !- Flow per Space Floor Area {m3/s-m2}
  0.000250063,                            !- Flow per Exterior Surface Area {m3/s-m2}
  ,                                       !- Air Changes per Hour {1/hr}
  ,                                       !- Constant Term Coefficient
  ,                                       !- Temperature Term Coefficient
  ,                                       !- Velocity Term Coefficient
  ;                                       !- Velocity Squared Term Coefficient

OS:DefaultScheduleSet,
  {9a855f13-7ee7-4c11-9f2e-58e59e6a32e3}, !- Handle
  Automotive facility WholeBuilding Schedule Set, !- Name
  ,                                       !- Hours of Operation Schedule Name
  {af955f6a-a75f-4dbd-a58f-9fd95a2ee6af}, !- Number of People Schedule Name
  {111877c5-e355-40cc-a702-65244ebd59e0}, !- People Activity Level Schedule Name
  {2be231e0-1715-4932-9615-790e54d6cf41}, !- Lighting Schedule Name
  {15f55edb-4f90-4e44-838d-eebea2906da0}, !- Electric Equipment Schedule Name
  ,                                       !- Gas Equipment Schedule Name
  ,                                       !- Hot Water Equipment Schedule Name
  {7ae4778d-5ed6-4db7-be05-b72a5b53f188}, !- Infiltration Schedule Name
  ,                                       !- Steam Equipment Schedule Name
  ;                                       !- Other Equipment Schedule Name

OS:Schedule:Ruleset,
  {af955f6a-a75f-4dbd-a58f-9fd95a2ee6af}, !- Handle
  NECB-E-Occupancy,                       !- Name
  {22de8ea3-4267-4411-bf95-77fabc2c9b96}, !- Schedule Type Limits Name
  {c817217d-50d4-4779-9c3b-31765a319ce2}; !- Default Day Schedule Name

OS:Schedule:Day,
  {c817217d-50d4-4779-9c3b-31765a319ce2}, !- Handle
  NECB-E-Occupancy Default,               !- Name
  {22de8ea3-4267-4411-bf95-77fabc2c9b96}, !- Schedule Type Limits Name
  ,                                       !- Interpolate to Timestep
  8,                                      !- Hour 1
  0,                                      !- Minute 1
  0,                                      !- Value Until Time 1
  9,                                      !- Hour 2
  0,                                      !- Minute 2
  0.2,                                    !- Value Until Time 2
  10,                                     !- Hour 3
  0,                                      !- Minute 3
  0.7,                                    !- Value Until Time 3
  14,                                     !- Hour 4
  0,                                      !- Minute 4
  0.9,                                    !- Value Until Time 4
  15,                                     !- Hour 5
  0,                                      !- Minute 5
  0.5,                                    !- Value Until Time 5
  16,                                     !- Hour 6
  0,                                      !- Minute 6
  0.9,                                    !- Value Until Time 6
  18,                                     !- Hour 7
  0,                                      !- Minute 7
  0.8,                                    !- Value Until Time 7
  19,                                     !- Hour 8
  0,                                      !- Minute 8
  0.2,                                    !- Value Until Time 8
  24,                                     !- Hour 9
  0,                                      !- Minute 9
  0;                                      !- Value Until Time 9

OS:Schedule:Rule,
  {51a23321-c7fb-42cc-bab9-56adb761a6f4}, !- Handle
  Schedule Rule 2,                        !- Name
  {af955f6a-a75f-4dbd-a58f-9fd95a2ee6af}, !- Schedule Ruleset Name
  2,                                      !- Rule Order
  {242b0612-13fc-4f84-85c0-43aa04d75ca0}, !- Day Schedule Name
  ,                                       !- Apply Sunday
  Yes,                                    !- Apply Monday
  Yes,                                    !- Apply Tuesday
  Yes,                                    !- Apply Wednesday
  Yes,                                    !- Apply Thursday
  Yes,                                    !- Apply Friday
  ,                                       !- Apply Saturday
  ,                                       !- Apply Holiday
  DateRange,                              !- Date Specification Type
  1,                                      !- Start Month
  1,                                      !- Start Day
  12,                                     !- End Month
  31;                                     !- End Day

OS:Schedule:Day,
  {242b0612-13fc-4f84-85c0-43aa04d75ca0}, !- Handle
  NECB-E-Occupancy Default|Wkdy Day,      !- Name
  {22de8ea3-4267-4411-bf95-77fabc2c9b96}, !- Schedule Type Limits Name
  ,                                       !- Interpolate to Timestep
  8,                                      !- Hour 1
  0,                                      !- Minute 1
  0,                                      !- Value Until Time 1
  9,                                      !- Hour 2
  0,                                      !- Minute 2
  0.2,                                    !- Value Until Time 2
  10,                                     !- Hour 3
  0,                                      !- Minute 3
  0.7,                                    !- Value Until Time 3
  14,                                     !- Hour 4
  0,                                      !- Minute 4
  0.9,                                    !- Value Until Time 4
  15,                                     !- Hour 5
  0,                                      !- Minute 5
  0.5,                                    !- Value Until Time 5
  16,                                     !- Hour 6
  0,                                      !- Minute 6
  0.9,                                    !- Value Until Time 6
  18,                                     !- Hour 7
  0,                                      !- Minute 7
  0.8,                                    !- Value Until Time 7
  19,                                     !- Hour 8
  0,                                      !- Minute 8
  0.2,                                    !- Value Until Time 8
  24,                                     !- Hour 9
  0,                                      !- Minute 9
  0;                                      !- Value Until Time 9

OS:Schedule:Rule,
  {7c3ca858-8f30-45e1-8147-0b50750b15a0}, !- Handle
  Schedule Rule 3,                        !- Name
  {af955f6a-a75f-4dbd-a58f-9fd95a2ee6af}, !- Schedule Ruleset Name
  1,                                      !- Rule Order
  {1e679bb4-6037-4687-810f-dbada9c4f7e9}, !- Day Schedule Name
  ,                                       !- Apply Sunday
  ,                                       !- Apply Monday
  ,                                       !- Apply Tuesday
  ,                                       !- Apply Wednesday
  ,                                       !- Apply Thursday
  ,                                       !- Apply Friday
  Yes,                                    !- Apply Saturday
  ,                                       !- Apply Holiday
  DateRange,                              !- Date Specification Type
  1,                                      !- Start Month
  1,                                      !- Start Day
  12,                                     !- End Month
  31;                                     !- End Day

OS:Schedule:Day,
  {1e679bb4-6037-4687-810f-dbada9c4f7e9}, !- Handle
  NECB-E-Occupancy Sat Day,               !- Name
  {22de8ea3-4267-4411-bf95-77fabc2c9b96}, !- Schedule Type Limits Name
  ,                                       !- Interpolate to Timestep
  9,                                      !- Hour 1
  0,                                      !- Minute 1
  0,                                      !- Value Until Time 1
  13,                                     !- Hour 2
  0,                                      !- Minute 2
  0.2,                                    !- Value Until Time 2
  17,                                     !- Hour 3
  0,                                      !- Minute 3
  0.1,                                    !- Value Until Time 3
  24,                                     !- Hour 4
  0,                                      !- Minute 4
  0;                                      !- Value Until Time 4

OS:Schedule:Rule,
  {d26e2677-a9af-4191-a7d5-7bbacf76ef86}, !- Handle
  Schedule Rule 4,                        !- Name
  {af955f6a-a75f-4dbd-a58f-9fd95a2ee6af}, !- Schedule Ruleset Name
  0,                                      !- Rule Order
  {5474e4b7-369c-4235-b11e-03a9ef7d2bd9}, !- Day Schedule Name
  Yes,                                    !- Apply Sunday
  ,                                       !- Apply Monday
  ,                                       !- Apply Tuesday
  ,                                       !- Apply Wednesday
  ,                                       !- Apply Thursday
  ,                                       !- Apply Friday
  ,                                       !- Apply Saturday
  ,                                       !- Apply Holiday
  DateRange,                              !- Date Specification Type
  1,                                      !- Start Month
  1,                                      !- Start Day
  12,                                     !- End Month
  31;                                     !- End Day

OS:Schedule:Day,
  {5474e4b7-369c-4235-b11e-03a9ef7d2bd9}, !- Handle
  NECB-E-Occupancy Sun|Hol Day,           !- Name
  {22de8ea3-4267-4411-bf95-77fabc2c9b96}, !- Schedule Type Limits Name
  ,                                       !- Interpolate to Timestep
  24,                                     !- Hour 1
  0,                                      !- Minute 1
  0;                                      !- Value Until Time 1

OS:Schedule:Ruleset,
  {111877c5-e355-40cc-a702-65244ebd59e0}, !- Handle
  NECB-Activity,                          !- Name
  {dc1dd0bc-7f10-491c-82f2-248791846447}, !- Schedule Type Limits Name
  {3947f120-bf0d-4aa9-92f4-c0e82e95fb8e}, !- Default Day Schedule Name
  {9961db54-0dc9-44ad-9eca-54f75917af15}, !- Summer Design Day Schedule Name
  {63322d83-374f-43d4-a74c-cf3168e42a6c}; !- Winter Design Day Schedule Name

OS:Schedule:Day,
  {3947f120-bf0d-4aa9-92f4-c0e82e95fb8e}, !- Handle
  NECB-Activity Default,                  !- Name
  {dc1dd0bc-7f10-491c-82f2-248791846447}, !- Schedule Type Limits Name
  ,                                       !- Interpolate to Timestep
  24,                                     !- Hour 1
  0,                                      !- Minute 1
  130;                                    !- Value Until Time 1

OS:Schedule:Day,
  {3c4df01a-485f-4357-802b-8ff4ab7266ae}, !- Handle
  Schedule Day 1,                         !- Name
  ,                                       !- Schedule Type Limits Name
  ,                                       !- Interpolate to Timestep
  24,                                     !- Hour 1
  0,                                      !- Minute 1
  0;                                      !- Value Until Time 1

OS:Schedule:Day,
  {63322d83-374f-43d4-a74c-cf3168e42a6c}, !- Handle
  NECB-Activity Winter Design Day,        !- Name
  {dc1dd0bc-7f10-491c-82f2-248791846447}, !- Schedule Type Limits Name
  ,                                       !- Interpolate to Timestep
  24,                                     !- Hour 1
  0,                                      !- Minute 1
  130;                                    !- Value Until Time 1

OS:Schedule:Day,
  {1b48e0e8-f7ff-46de-aa67-b62f25dcfea4}, !- Handle
  Schedule Day 2,                         !- Name
  ,                                       !- Schedule Type Limits Name
  ,                                       !- Interpolate to Timestep
  24,                                     !- Hour 1
  0,                                      !- Minute 1
  0;                                      !- Value Until Time 1

OS:Schedule:Day,
  {9961db54-0dc9-44ad-9eca-54f75917af15}, !- Handle
  NECB-Activity Summer Design Day,        !- Name
  {dc1dd0bc-7f10-491c-82f2-248791846447}, !- Schedule Type Limits Name
  ,                                       !- Interpolate to Timestep
  24,                                     !- Hour 1
  0,                                      !- Minute 1
  130;                                    !- Value Until Time 1

OS:ScheduleTypeLimits,
  {dc1dd0bc-7f10-491c-82f2-248791846447}, !- Handle
  ActivityLevel,                          !- Name
  0,                                      !- Lower Limit Value
  ,                                       !- Upper Limit Value
  Continuous,                             !- Numeric Type
  ActivityLevel;                          !- Unit Type

OS:Schedule:Ruleset,
  {2be231e0-1715-4932-9615-790e54d6cf41}, !- Handle
  NECB-E-Occupancy-NECB-E-Lighting-0.0-0.0-0.0-Light Ruleset, !- Name
  {22de8ea3-4267-4411-bf95-77fabc2c9b96}, !- Schedule Type Limits Name
  {c44be088-54fd-4143-afdb-8d210649c59c}; !- Default Day Schedule Name

OS:Schedule:Day,
  {c44be088-54fd-4143-afdb-8d210649c59c}, !- Handle
  NECB-E-Occupancy-NECB-E-Lighting-0.0-0.0-0.0-Light Default, !- Name
  {22de8ea3-4267-4411-bf95-77fabc2c9b96}, !- Schedule Type Limits Name
  ,                                       !- Interpolate to Timestep
  8,                                      !- Hour 1
  0,                                      !- Minute 1
  0.05,                                   !- Value Until Time 1
  9,                                      !- Hour 2
  0,                                      !- Minute 2
  0.4,                                    !- Value Until Time 2
  10,                                     !- Hour 3
  0,                                      !- Minute 3
  0.7,                                    !- Value Until Time 3
  18,                                     !- Hour 4
  0,                                      !- Minute 4
  0.9,                                    !- Value Until Time 4
  19,                                     !- Hour 5
  0,                                      !- Minute 5
  0.4,                                    !- Value Until Time 5
  24,                                     !- Hour 6
  0,                                      !- Minute 6
  0.05;                                   !- Value Until Time 6

OS:Schedule:Rule,
  {38f94087-0e3b-4c39-9084-257161239301}, !- Handle
  Schedule Rule 5,                        !- Name
  {2be231e0-1715-4932-9615-790e54d6cf41}, !- Schedule Ruleset Name
  2,                                      !- Rule Order
  {0cb689ae-e73c-4f20-ad83-de6e5c02ede9}, !- Day Schedule Name
  ,                                       !- Apply Sunday
  Yes,                                    !- Apply Monday
  Yes,                                    !- Apply Tuesday
  Yes,                                    !- Apply Wednesday
  Yes,                                    !- Apply Thursday
  Yes,                                    !- Apply Friday
  ,                                       !- Apply Saturday
  ,                                       !- Apply Holiday
  DateRange,                              !- Date Specification Type
  1,                                      !- Start Month
  1,                                      !- Start Day
  12,                                     !- End Month
  31;                                     !- End Day

OS:Schedule:Day,
  {0cb689ae-e73c-4f20-ad83-de6e5c02ede9}, !- Handle
  NECB-E-Occupancy-NECB-E-Lighting-0.0-0.0-0.0-Default|Wkdy-Light Day, !- Name
  {22de8ea3-4267-4411-bf95-77fabc2c9b96}, !- Schedule Type Limits Name
  ,                                       !- Interpolate to Timestep
  8,                                      !- Hour 1
  0,                                      !- Minute 1
  0.05,                                   !- Value Until Time 1
  9,                                      !- Hour 2
  0,                                      !- Minute 2
  0.4,                                    !- Value Until Time 2
  10,                                     !- Hour 3
  0,                                      !- Minute 3
  0.7,                                    !- Value Until Time 3
  18,                                     !- Hour 4
  0,                                      !- Minute 4
  0.9,                                    !- Value Until Time 4
  19,                                     !- Hour 5
  0,                                      !- Minute 5
  0.4,                                    !- Value Until Time 5
  24,                                     !- Hour 6
  0,                                      !- Minute 6
  0.05;                                   !- Value Until Time 6

OS:Schedule:Rule,
  {cd05fd54-297c-404a-87df-efb71e820002}, !- Handle
  Schedule Rule 6,                        !- Name
  {2be231e0-1715-4932-9615-790e54d6cf41}, !- Schedule Ruleset Name
  1,                                      !- Rule Order
  {51137af8-e52d-426b-b556-5b16a01a51a8}, !- Day Schedule Name
  ,                                       !- Apply Sunday
  ,                                       !- Apply Monday
  ,                                       !- Apply Tuesday
  ,                                       !- Apply Wednesday
  ,                                       !- Apply Thursday
  ,                                       !- Apply Friday
  Yes,                                    !- Apply Saturday
  ,                                       !- Apply Holiday
  DateRange,                              !- Date Specification Type
  1,                                      !- Start Month
  1,                                      !- Start Day
  12,                                     !- End Month
  31;                                     !- End Day

OS:Schedule:Day,
  {51137af8-e52d-426b-b556-5b16a01a51a8}, !- Handle
  NECB-E-Occupancy-NECB-E-Lighting-0.0-0.0-0.0-Sat-Light Day, !- Name
  {22de8ea3-4267-4411-bf95-77fabc2c9b96}, !- Schedule Type Limits Name
  ,                                       !- Interpolate to Timestep
  9,                                      !- Hour 1
  0,                                      !- Minute 1
  0.05,                                   !- Value Until Time 1
  10,                                     !- Hour 2
  0,                                      !- Minute 2
  0.5,                                    !- Value Until Time 2
  15,                                     !- Hour 3
  0,                                      !- Minute 3
  0.9,                                    !- Value Until Time 3
  16,                                     !- Hour 4
  0,                                      !- Minute 4
  0.7,                                    !- Value Until Time 4
  17,                                     !- Hour 5
  0,                                      !- Minute 5
  0.5,                                    !- Value Until Time 5
  24,                                     !- Hour 6
  0,                                      !- Minute 6
  0.05;                                   !- Value Until Time 6

OS:Schedule:Rule,
  {db6babf6-eb2f-4f08-a266-ed9a546be888}, !- Handle
  Schedule Rule 7,                        !- Name
  {2be231e0-1715-4932-9615-790e54d6cf41}, !- Schedule Ruleset Name
  0,                                      !- Rule Order
  {1885c551-a673-4373-940f-d10ebe22f3ec}, !- Day Schedule Name
  Yes,                                    !- Apply Sunday
  ,                                       !- Apply Monday
  ,                                       !- Apply Tuesday
  ,                                       !- Apply Wednesday
  ,                                       !- Apply Thursday
  ,                                       !- Apply Friday
  ,                                       !- Apply Saturday
  ,                                       !- Apply Holiday
  DateRange,                              !- Date Specification Type
  1,                                      !- Start Month
  1,                                      !- Start Day
  12,                                     !- End Month
  31;                                     !- End Day
