
OS:Version,
  {d6ca3df3-9b41-43d4-aa7b-89da2d408851}, !- Handle
  2.8.1;                                  !- Version Identifier

OS:SpaceType,
  {5eccfe08-219d-4003-b943-f44f310c4449}, !- Handle
  Automotive facility WholeBuilding,      !- Name
  ,                                       !- Default Construction Set Name
  {a520845c-ba32-493f-b2c6-3449613ef85b}, !- Default Schedule Set Name
  ,                                       !- Group Rendering Name
  {f06abd14-23fb-4596-a1e9-9e46ceadbdb5}, !- Design Specification Outdoor Air Object Name
  ,                                       !- Standards Template
  Automotive facility,                    !- Standards Building Type
  WholeBuilding;                          !- Standards Space Type

OS:People:Definition,
  {634c89b6-ba69-469b-a82f-aa58677c94c8}, !- Handle
  Automotive facility WholeBuilding People Definition, !- Name
  People/Area,                            !- Number of People Calculation Method
  ,                                       !- Number of People {people}
  0.0500521834377002,                     !- People per Space Floor Area {person/m2}
  ,                                       !- Space Floor Area per Person {m2/person}
  0.3;                                    !- Fraction Radiant

OS:People,
  {d8ef5cb2-a707-42c8-94db-382f2a99c45f}, !- Handle
  Automotive facility WholeBuilding People, !- Name
  {634c89b6-ba69-469b-a82f-aa58677c94c8}, !- People Definition Name
  {5eccfe08-219d-4003-b943-f44f310c4449}, !- Space or SpaceType Name
  ,                                       !- Number of People Schedule Name
  ,                                       !- Activity Level Schedule Name
  ,                                       !- Surface Name/Angle Factor List Name
  {199046f9-1172-4104-b465-5f5c4983bc93}, !- Work Efficiency Schedule Name
  {fedbd8de-808a-42d7-8b72-b8abe4dcc4cc}, !- Clothing Insulation Schedule Name
  {354bb18d-55ed-4dfc-a626-3eb0758cbab4}, !- Air Velocity Schedule Name
  1;                                      !- Multiplier

OS:Schedule:Ruleset,
  {fedbd8de-808a-42d7-8b72-b8abe4dcc4cc}, !- Handle
  Clothing Schedule,                      !- Name
  {2ab1fb1c-ac3e-498c-bcdf-ef32ff1ad665}, !- Schedule Type Limits Name
  {56b70f8f-05d9-4267-8c04-21777b0e766c}; !- Default Day Schedule Name

OS:Schedule:Day,
  {56b70f8f-05d9-4267-8c04-21777b0e766c}, !- Handle
  Clothing Schedule Default Winter Clothes, !- Name
  {2ab1fb1c-ac3e-498c-bcdf-ef32ff1ad665}, !- Schedule Type Limits Name
  ,                                       !- Interpolate to Timestep
  24,                                     !- Hour 1
  0,                                      !- Minute 1
  1;                                      !- Value Until Time 1

OS:Schedule:Rule,
  {89c77643-3698-4da4-93b5-e752ace23710}, !- Handle
  Schedule Rule 1,                        !- Name
  {fedbd8de-808a-42d7-8b72-b8abe4dcc4cc}, !- Schedule Ruleset Name
  0,                                      !- Rule Order
  {689ab46e-170f-46a0-8f17-a938877c339b}, !- Day Schedule Name
  ,                                       !- Apply Sunday
  ,                                       !- Apply Monday
  ,                                       !- Apply Tuesday
  ,                                       !- Apply Wednesday
  ,                                       !- Apply Thursday
  ,                                       !- Apply Friday
  ,                                       !- Apply Saturday
  ,                                       !- Apply Holiday
  DateRange,                              !- Date Specification Type
  5,                                      !- Start Month
  1,                                      !- Start Day
  9,                                      !- End Month
  30;                                     !- End Day

OS:Schedule:Day,
  {689ab46e-170f-46a0-8f17-a938877c339b}, !- Handle
  Clothing Schedule Summer Clothes,       !- Name
  {2ab1fb1c-ac3e-498c-bcdf-ef32ff1ad665}, !- Schedule Type Limits Name
  ,                                       !- Interpolate to Timestep
  24,                                     !- Hour 1
  0,                                      !- Minute 1
  0.5;                                    !- Value Until Time 1

OS:ScheduleTypeLimits,
  {2ab1fb1c-ac3e-498c-bcdf-ef32ff1ad665}, !- Handle
  ClothingInsulation,                     !- Name
  0,                                      !- Lower Limit Value
  ,                                       !- Upper Limit Value
  Continuous,                             !- Numeric Type
  ClothingInsulation;                     !- Unit Type

OS:Schedule:Ruleset,
  {354bb18d-55ed-4dfc-a626-3eb0758cbab4}, !- Handle
  Air Velocity Schedule,                  !- Name
  {2d1ac6d7-e267-4318-9d4c-b496b40b3fff}, !- Schedule Type Limits Name
  {4794c525-77dd-4ba0-ac5e-e68e9173486c}; !- Default Day Schedule Name

OS:Schedule:Day,
  {4794c525-77dd-4ba0-ac5e-e68e9173486c}, !- Handle
  Air Velocity Schedule Default,          !- Name
  {2d1ac6d7-e267-4318-9d4c-b496b40b3fff}, !- Schedule Type Limits Name
  ,                                       !- Interpolate to Timestep
  24,                                     !- Hour 1
  0,                                      !- Minute 1
  0.2;                                    !- Value Until Time 1

OS:ScheduleTypeLimits,
  {2d1ac6d7-e267-4318-9d4c-b496b40b3fff}, !- Handle
  Velocity,                               !- Name
  0,                                      !- Lower Limit Value
  ,                                       !- Upper Limit Value
  Continuous,                             !- Numeric Type
  Velocity;                               !- Unit Type

OS:Schedule:Ruleset,
  {199046f9-1172-4104-b465-5f5c4983bc93}, !- Handle
  Work Efficiency Schedule,               !- Name
  {adf27243-cffc-4ada-a114-3cdcdcebe4cc}, !- Schedule Type Limits Name
  {cbb9f8c3-09c9-4135-9a8b-5acc5ccb980a}; !- Default Day Schedule Name

OS:Schedule:Day,
  {cbb9f8c3-09c9-4135-9a8b-5acc5ccb980a}, !- Handle
  Work Efficiency Schedule Default,       !- Name
  {adf27243-cffc-4ada-a114-3cdcdcebe4cc}, !- Schedule Type Limits Name
  ,                                       !- Interpolate to Timestep
  24,                                     !- Hour 1
  0,                                      !- Minute 1
  0;                                      !- Value Until Time 1

OS:ScheduleTypeLimits,
  {adf27243-cffc-4ada-a114-3cdcdcebe4cc}, !- Handle
  Fractional,                             !- Name
  0,                                      !- Lower Limit Value
  1,                                      !- Upper Limit Value
  Continuous;                             !- Numeric Type

OS:Lights:Definition,
  {d71d6d5a-f6c7-4f40-b698-64098cff4a94}, !- Handle
  Automotive facility WholeBuilding Lights Definition, !- Name
  Watts/Area,                             !- Design Level Calculation Method
  ,                                       !- Lighting Level {W}
  8.79992676235352,                       !- Watts per Space Floor Area {W/m2}
  ,                                       !- Watts per Person {W/person}
  0.5,                                    !- Fraction Radiant
  0.2;                                    !- Fraction Visible

OS:Lights,
  {2d1a1763-40ce-4aba-9dbd-cdb3b78d46ca}, !- Handle
  Automotive facility WholeBuilding Lights, !- Name
  {d71d6d5a-f6c7-4f40-b698-64098cff4a94}, !- Lights Definition Name
  {5eccfe08-219d-4003-b943-f44f310c4449}, !- Space or SpaceType Name
  ,                                       !- Schedule Name
  1,                                      !- Fraction Replaceable
  ,                                       !- Multiplier
  General;                                !- End-Use Subcategory

OS:ElectricEquipment:Definition,
  {1c9a8736-3b1f-46d8-ae30-ea60fdbc25b0}, !- Handle
  Automotive facility WholeBuilding Elec Equip Definition, !- Name
  Watts/Area,                             !- Design Level Calculation Method
  ,                                       !- Design Level {W}
  4.99995838672233,                       !- Watts per Space Floor Area {W/m2}
  ,                                       !- Watts per Person {W/person}
  ,                                       !- Fraction Latent
  0.5;                                    !- Fraction Radiant

OS:ElectricEquipment,
  {5c067ed0-f63c-4c11-810c-1fb70cb66d99}, !- Handle
  Automotive facility WholeBuilding Elec Equip, !- Name
  {1c9a8736-3b1f-46d8-ae30-ea60fdbc25b0}, !- Electric Equipment Definition Name
  {5eccfe08-219d-4003-b943-f44f310c4449}, !- Space or SpaceType Name
  ,                                       !- Schedule Name
  ,                                       !- Multiplier
  General;                                !- End-Use Subcategory

OS:DesignSpecification:OutdoorAir,
  {f06abd14-23fb-4596-a1e9-9e46ceadbdb5}, !- Handle
  Automotive facility WholeBuilding Ventilation, !- Name
  Sum,                                    !- Outdoor Air Method
  ,                                       !- Outdoor Air Flow per Person {m3/s-person}
  0.00114808,                             !- Outdoor Air Flow per Floor Area {m3/s-m2}
  ,                                       !- Outdoor Air Flow Rate {m3/s}
  ,                                       !- Outdoor Air Flow Air Changes per Hour {1/hr}
  ;                                       !- Outdoor Air Flow Rate Fraction Schedule Name

OS:SpaceInfiltration:DesignFlowRate,
  {bad491a7-ed32-4bd7-9d3f-f8e4e5c82874}, !- Handle
  Automotive facility WholeBuilding Infiltration, !- Name
  {5eccfe08-219d-4003-b943-f44f310c4449}, !- Space or SpaceType Name
  ,                                       !- Schedule Name
  Flow/ExteriorArea,                      !- Design Flow Rate Calculation Method
  ,                                       !- Design Flow Rate {m3/s}
  ,                                       !- Flow per Space Floor Area {m3/s-m2}
  0.000250063,                            !- Flow per Exterior Surface Area {m3/s-m2}
  ,                                       !- Air Changes per Hour {1/hr}
  ,                                       !- Constant Term Coefficient
  ,                                       !- Temperature Term Coefficient
  ,                                       !- Velocity Term Coefficient
  ;                                       !- Velocity Squared Term Coefficient

OS:DefaultScheduleSet,
  {a520845c-ba32-493f-b2c6-3449613ef85b}, !- Handle
  Automotive facility WholeBuilding Schedule Set, !- Name
  ,                                       !- Hours of Operation Schedule Name
  {86f0cefc-3768-4db8-8534-9928bfe2dacb}, !- Number of People Schedule Name
  {4105b59c-6ae2-4cca-9814-18a34a5538da}, !- People Activity Level Schedule Name
  {9db12f53-6c0e-4068-94c5-a4e465bab9b5}, !- Lighting Schedule Name
  {882f3ce5-9dd1-4cc8-9048-d81ed679d1d0}, !- Electric Equipment Schedule Name
  ,                                       !- Gas Equipment Schedule Name
  ,                                       !- Hot Water Equipment Schedule Name
  {c59d5cb7-a3f2-42ea-9293-020bb00bc176}, !- Infiltration Schedule Name
  ,                                       !- Steam Equipment Schedule Name
  ;                                       !- Other Equipment Schedule Name

OS:Schedule:Ruleset,
  {86f0cefc-3768-4db8-8534-9928bfe2dacb}, !- Handle
  NECB-E-Occupancy,                       !- Name
  {adf27243-cffc-4ada-a114-3cdcdcebe4cc}, !- Schedule Type Limits Name
  {482af109-0856-4245-98e7-20b206ffb63b}; !- Default Day Schedule Name

OS:Schedule:Day,
  {482af109-0856-4245-98e7-20b206ffb63b}, !- Handle
  NECB-E-Occupancy Default,               !- Name
  {adf27243-cffc-4ada-a114-3cdcdcebe4cc}, !- Schedule Type Limits Name
  ,                                       !- Interpolate to Timestep
  8,                                      !- Hour 1
  0,                                      !- Minute 1
  0,                                      !- Value Until Time 1
  9,                                      !- Hour 2
  0,                                      !- Minute 2
  0.2,                                    !- Value Until Time 2
  10,                                     !- Hour 3
  0,                                      !- Minute 3
  0.7,                                    !- Value Until Time 3
  14,                                     !- Hour 4
  0,                                      !- Minute 4
  0.9,                                    !- Value Until Time 4
  15,                                     !- Hour 5
  0,                                      !- Minute 5
  0.5,                                    !- Value Until Time 5
  16,                                     !- Hour 6
  0,                                      !- Minute 6
  0.9,                                    !- Value Until Time 6
  18,                                     !- Hour 7
  0,                                      !- Minute 7
  0.8,                                    !- Value Until Time 7
  19,                                     !- Hour 8
  0,                                      !- Minute 8
  0.2,                                    !- Value Until Time 8
  24,                                     !- Hour 9
  0,                                      !- Minute 9
  0;                                      !- Value Until Time 9

OS:Schedule:Rule,
  {68ad1997-8fa0-4080-a3d0-17fc6edaef4e}, !- Handle
  Schedule Rule 2,                        !- Name
  {86f0cefc-3768-4db8-8534-9928bfe2dacb}, !- Schedule Ruleset Name
  2,                                      !- Rule Order
  {40a271cf-7b9f-4aab-8253-8a98f87220f1}, !- Day Schedule Name
  ,                                       !- Apply Sunday
  Yes,                                    !- Apply Monday
  Yes,                                    !- Apply Tuesday
  Yes,                                    !- Apply Wednesday
  Yes,                                    !- Apply Thursday
  Yes,                                    !- Apply Friday
  ,                                       !- Apply Saturday
  ,                                       !- Apply Holiday
  DateRange,                              !- Date Specification Type
  1,                                      !- Start Month
  1,                                      !- Start Day
  12,                                     !- End Month
  31;                                     !- End Day

OS:Schedule:Day,
  {40a271cf-7b9f-4aab-8253-8a98f87220f1}, !- Handle
  NECB-E-Occupancy Default|Wkdy Day,      !- Name
  {adf27243-cffc-4ada-a114-3cdcdcebe4cc}, !- Schedule Type Limits Name
  ,                                       !- Interpolate to Timestep
  8,                                      !- Hour 1
  0,                                      !- Minute 1
  0,                                      !- Value Until Time 1
  9,                                      !- Hour 2
  0,                                      !- Minute 2
  0.2,                                    !- Value Until Time 2
  10,                                     !- Hour 3
  0,                                      !- Minute 3
  0.7,                                    !- Value Until Time 3
  14,                                     !- Hour 4
  0,                                      !- Minute 4
  0.9,                                    !- Value Until Time 4
  15,                                     !- Hour 5
  0,                                      !- Minute 5
  0.5,                                    !- Value Until Time 5
  16,                                     !- Hour 6
  0,                                      !- Minute 6
  0.9,                                    !- Value Until Time 6
  18,                                     !- Hour 7
  0,                                      !- Minute 7
  0.8,                                    !- Value Until Time 7
  19,                                     !- Hour 8
  0,                                      !- Minute 8
  0.2,                                    !- Value Until Time 8
  24,                                     !- Hour 9
  0,                                      !- Minute 9
  0;                                      !- Value Until Time 9

OS:Schedule:Rule,
  {68f48c3f-0b45-4c3e-a381-f0486db76a57}, !- Handle
  Schedule Rule 3,                        !- Name
  {86f0cefc-3768-4db8-8534-9928bfe2dacb}, !- Schedule Ruleset Name
  1,                                      !- Rule Order
  {b5b7faa3-72d5-49e5-abaf-36300b035cbf}, !- Day Schedule Name
  ,                                       !- Apply Sunday
  ,                                       !- Apply Monday
  ,                                       !- Apply Tuesday
  ,                                       !- Apply Wednesday
  ,                                       !- Apply Thursday
  ,                                       !- Apply Friday
  Yes,                                    !- Apply Saturday
  ,                                       !- Apply Holiday
  DateRange,                              !- Date Specification Type
  1,                                      !- Start Month
  1,                                      !- Start Day
  12,                                     !- End Month
  31;                                     !- End Day

OS:Schedule:Day,
  {b5b7faa3-72d5-49e5-abaf-36300b035cbf}, !- Handle
  NECB-E-Occupancy Sat Day,               !- Name
  {adf27243-cffc-4ada-a114-3cdcdcebe4cc}, !- Schedule Type Limits Name
  ,                                       !- Interpolate to Timestep
  9,                                      !- Hour 1
  0,                                      !- Minute 1
  0,                                      !- Value Until Time 1
  13,                                     !- Hour 2
  0,                                      !- Minute 2
  0.2,                                    !- Value Until Time 2
  17,                                     !- Hour 3
  0,                                      !- Minute 3
  0.1,                                    !- Value Until Time 3
  24,                                     !- Hour 4
  0,                                      !- Minute 4
  0;                                      !- Value Until Time 4

OS:Schedule:Rule,
  {a2cbaa90-7ae1-470e-8dc8-96f483f56a9f}, !- Handle
  Schedule Rule 4,                        !- Name
  {86f0cefc-3768-4db8-8534-9928bfe2dacb}, !- Schedule Ruleset Name
  0,                                      !- Rule Order
  {05339540-060e-4454-93b2-6b523027cce5}, !- Day Schedule Name
  Yes,                                    !- Apply Sunday
  ,                                       !- Apply Monday
  ,                                       !- Apply Tuesday
  ,                                       !- Apply Wednesday
  ,                                       !- Apply Thursday
  ,                                       !- Apply Friday
  ,                                       !- Apply Saturday
  ,                                       !- Apply Holiday
  DateRange,                              !- Date Specification Type
  1,                                      !- Start Month
  1,                                      !- Start Day
  12,                                     !- End Month
  31;                                     !- End Day

OS:Schedule:Day,
  {05339540-060e-4454-93b2-6b523027cce5}, !- Handle
  NECB-E-Occupancy Sun|Hol Day,           !- Name
  {adf27243-cffc-4ada-a114-3cdcdcebe4cc}, !- Schedule Type Limits Name
  ,                                       !- Interpolate to Timestep
  24,                                     !- Hour 1
  0,                                      !- Minute 1
  0;                                      !- Value Until Time 1

OS:Schedule:Ruleset,
  {4105b59c-6ae2-4cca-9814-18a34a5538da}, !- Handle
  NECB-Activity,                          !- Name
  {3461a580-d87c-4722-b9c2-5c51e584a31e}, !- Schedule Type Limits Name
  {967b4885-20d5-4ec9-a8ba-7366d7570850}, !- Default Day Schedule Name
  {061827a9-9571-4416-85a1-5b617d1d8122}, !- Summer Design Day Schedule Name
  {c26743b9-a5de-4d26-ab48-9d0e97f83237}; !- Winter Design Day Schedule Name

OS:Schedule:Day,
  {967b4885-20d5-4ec9-a8ba-7366d7570850}, !- Handle
  NECB-Activity Default,                  !- Name
  {3461a580-d87c-4722-b9c2-5c51e584a31e}, !- Schedule Type Limits Name
  ,                                       !- Interpolate to Timestep
  24,                                     !- Hour 1
  0,                                      !- Minute 1
  130;                                    !- Value Until Time 1

OS:Schedule:Day,
  {e887331e-9c22-4977-bd1a-2ba3468c29ca}, !- Handle
  Schedule Day 1,                         !- Name
  ,                                       !- Schedule Type Limits Name
  ,                                       !- Interpolate to Timestep
  24,                                     !- Hour 1
  0,                                      !- Minute 1
  0;                                      !- Value Until Time 1

OS:Schedule:Day,
  {c26743b9-a5de-4d26-ab48-9d0e97f83237}, !- Handle
  NECB-Activity Winter Design Day,        !- Name
  {3461a580-d87c-4722-b9c2-5c51e584a31e}, !- Schedule Type Limits Name
  ,                                       !- Interpolate to Timestep
  24,                                     !- Hour 1
  0,                                      !- Minute 1
  130;                                    !- Value Until Time 1

OS:Schedule:Day,
  {8ee04080-3eaf-44be-8625-1b1f5f762d80}, !- Handle
  Schedule Day 2,                         !- Name
  ,                                       !- Schedule Type Limits Name
  ,                                       !- Interpolate to Timestep
  24,                                     !- Hour 1
  0,                                      !- Minute 1
  0;                                      !- Value Until Time 1

OS:Schedule:Day,
  {061827a9-9571-4416-85a1-5b617d1d8122}, !- Handle
  NECB-Activity Summer Design Day,        !- Name
  {3461a580-d87c-4722-b9c2-5c51e584a31e}, !- Schedule Type Limits Name
  ,                                       !- Interpolate to Timestep
  24,                                     !- Hour 1
  0,                                      !- Minute 1
  130;                                    !- Value Until Time 1

OS:ScheduleTypeLimits,
  {3461a580-d87c-4722-b9c2-5c51e584a31e}, !- Handle
  ActivityLevel,                          !- Name
  0,                                      !- Lower Limit Value
  ,                                       !- Upper Limit Value
  Continuous,                             !- Numeric Type
  ActivityLevel;                          !- Unit Type

OS:Schedule:Ruleset,
  {9db12f53-6c0e-4068-94c5-a4e465bab9b5}, !- Handle
  NECB-E-Lighting,                        !- Name
  {adf27243-cffc-4ada-a114-3cdcdcebe4cc}, !- Schedule Type Limits Name
  {4476648c-536b-4f20-84f3-62f914a36da9}; !- Default Day Schedule Name

OS:Schedule:Day,
  {4476648c-536b-4f20-84f3-62f914a36da9}, !- Handle
  NECB-E-Lighting Default,                !- Name
  {adf27243-cffc-4ada-a114-3cdcdcebe4cc}, !- Schedule Type Limits Name
  ,                                       !- Interpolate to Timestep
  8,                                      !- Hour 1
  0,                                      !- Minute 1
  0.05,                                   !- Value Until Time 1
  9,                                      !- Hour 2
  0,                                      !- Minute 2
  0.4,                                    !- Value Until Time 2
  10,                                     !- Hour 3
  0,                                      !- Minute 3
  0.7,                                    !- Value Until Time 3
  18,                                     !- Hour 4
  0,                                      !- Minute 4
  0.9,                                    !- Value Until Time 4
  19,                                     !- Hour 5
  0,                                      !- Minute 5
  0.4,                                    !- Value Until Time 5
  24,                                     !- Hour 6
  0,                                      !- Minute 6
  0.05;                                   !- Value Until Time 6

OS:Schedule:Rule,
  {6f1431a9-87e7-4116-85fc-d8d8b443e16d}, !- Handle
  Schedule Rule 5,                        !- Name
  {9db12f53-6c0e-4068-94c5-a4e465bab9b5}, !- Schedule Ruleset Name
  2,                                      !- Rule Order
  {9cdf682a-3dfd-472b-9493-281e096acf9b}, !- Day Schedule Name
  ,                                       !- Apply Sunday
  Yes,                                    !- Apply Monday
  Yes,                                    !- Apply Tuesday
  Yes,                                    !- Apply Wednesday
  Yes,                                    !- Apply Thursday
  Yes,                                    !- Apply Friday
  ,                                       !- Apply Saturday
  ,                                       !- Apply Holiday
  DateRange,                              !- Date Specification Type
  1,                                      !- Start Month
  1,                                      !- Start Day
  12,                                     !- End Month
  31;                                     !- End Day

OS:Schedule:Day,
  {9cdf682a-3dfd-472b-9493-281e096acf9b}, !- Handle
  NECB-E-Lighting Default|Wkdy Day,       !- Name
  {adf27243-cffc-4ada-a114-3cdcdcebe4cc}, !- Schedule Type Limits Name
  ,                                       !- Interpolate to Timestep
  8,                                      !- Hour 1
  0,                                      !- Minute 1
  0.05,                                   !- Value Until Time 1
  9,                                      !- Hour 2
  0,                                      !- Minute 2
  0.4,                                    !- Value Until Time 2
  10,                                     !- Hour 3
  0,                                      !- Minute 3
  0.7,                                    !- Value Until Time 3
  18,                                     !- Hour 4
  0,                                      !- Minute 4
  0.9,                                    !- Value Until Time 4
  19,                                     !- Hour 5
  0,                                      !- Minute 5
  0.4,                                    !- Value Until Time 5
  24,                                     !- Hour 6
  0,                                      !- Minute 6
  0.05;                                   !- Value Until Time 6

OS:Schedule:Rule,
  {20212326-c8af-4ad2-a6d5-179d3589f439}, !- Handle
  Schedule Rule 6,                        !- Name
  {9db12f53-6c0e-4068-94c5-a4e465bab9b5}, !- Schedule Ruleset Name
  1,                                      !- Rule Order
  {21853879-fdfd-4c8e-b56d-ab57f317b709}, !- Day Schedule Name
  ,                                       !- Apply Sunday
  ,                                       !- Apply Monday
  ,                                       !- Apply Tuesday
  ,                                       !- Apply Wednesday
  ,                                       !- Apply Thursday
  ,                                       !- Apply Friday
  Yes,                                    !- Apply Saturday
  ,                                       !- Apply Holiday
  DateRange,                              !- Date Specification Type
  1,                                      !- Start Month
  1,                                      !- Start Day
  12,                                     !- End Month
  31;                                     !- End Day

OS:Schedule:Day,
  {21853879-fdfd-4c8e-b56d-ab57f317b709}, !- Handle
  NECB-E-Lighting Sat Day,                !- Name
  {adf27243-cffc-4ada-a114-3cdcdcebe4cc}, !- Schedule Type Limits Name
  ,                                       !- Interpolate to Timestep
  9,                                      !- Hour 1
  0,                                      !- Minute 1
  0.05,                                   !- Value Until Time 1
  10,                                     !- Hour 2
  0,                                      !- Minute 2
  0.5,                                    !- Value Until Time 2
  15,                                     !- Hour 3
  0,                                      !- Minute 3
  0.9,                                    !- Value Until Time 3
  16,                                     !- Hour 4
  0,                                      !- Minute 4
  0.7,                                    !- Value Until Time 4
  17,                                     !- Hour 5
  0,                                      !- Minute 5
  0.5,                                    !- Value Until Time 5
  24,                                     !- Hour 6
  0,                                      !- Minute 6
  0.05;                                   !- Value Until Time 6

OS:Schedule:Rule,
  {03e3b197-a415-4192-9ab1-fa7dc920e5e1}, !- Handle
  Schedule Rule 7,                        !- Name
  {9db12f53-6c0e-4068-94c5-a4e465bab9b5}, !- Schedule Ruleset Name
  0,                                      !- Rule Order
  {b799e538-41e2-4e08-9ad6-e19d014b1937}, !- Day Schedule Name
  Yes,                                    !- Apply Sunday
  ,                                       !- Apply Monday
  ,                                       !- Apply Tuesday
  ,                                       !- Apply Wednesday
  ,                                       !- Apply Thursday
  ,                                       !- Apply Friday
  ,                                       !- Apply Saturday
  ,                                       !- Apply Holiday
  DateRange,                              !- Date Specification Type
  1,                                      !- Start Month
  1,                                      !- Start Day
  12,                                     !- End Month
  31;                                     !- End Day

OS:Schedule:Day,
  {b799e538-41e2-4e08-9ad6-e19d014b1937}, !- Handle